Version 4
SHEET 1 1596 680
WIRE 464 -16 464 -96
WIRE 400 160 320 160
WIRE 208 208 -240 208
WIRE 400 208 400 160
WIRE 432 208 432 176
WIRE 208 224 208 208
WIRE 384 224 208 224
WIRE 208 256 208 224
WIRE 384 256 208 256
WIRE 208 288 208 256
WIRE 384 288 208 288
WIRE 544 288 480 288
WIRE 624 288 544 288
WIRE 208 304 208 288
WIRE -240 320 -240 288
WIRE 544 320 480 320
WIRE 624 320 544 320
WIRE 784 320 752 320
WIRE 816 320 784 320
WIRE 384 352 208 352
WIRE 544 352 480 352
WIRE 624 352 544 352
WIRE 208 384 208 352
WIRE 384 384 208 384
WIRE 208 416 208 384
WIRE 384 416 208 416
WIRE 208 448 208 416
WIRE 432 464 432 432
WIRE 464 464 464 432
WIRE 544 464 464 464
WIRE 640 464 544 464
FLAG 784 320 out
FLAG 144 -16 0
FLAG 352 -16 0
FLAG 560 -16 0
FLAG 352 -96 a
FLAG 560 -96 b
FLAG 720 -16 0
FLAG 720 -96 sel
FLAG 320 160 0
FLAG 544 352 o3
FLAG 544 320 o2
FLAG 544 288 o1
FLAG 544 464 cout
FLAG 144 -96 vdd
FLAG 432 176 vdd
FLAG 432 464 vss
FLAG 464 -16 0
FLAG 464 -96 vss
FLAG -240 320 0
FLAG 208 448 0
SYMBOL Bin2Dec 688 320 R0
SYMATTR InstName U1
SYMATTR SpiceLine Vhigh={vv}
SYMBOL /voltage 144 -112 R0
SYMATTR InstName V1
SYMATTR Value 1.8
SYMBOL /voltage 352 -112 R0
SYMATTR InstName Va
SYMATTR Value 3
SYMBOL /voltage 560 -112 R0
SYMATTR InstName Vb
SYMATTR Value 3
SYMBOL /voltage 720 -112 R0
SYMATTR InstName Vsel
SYMATTR Value 1.8
SYMBOL add3b 432 320 R0
SYMATTR InstName X1
SYMBOL /voltage -240 192 R0
SYMATTR InstName V2
SYMATTR Value PULSE(0 {vv} 2000p 1p 1p 2000p 4000p 5)
TEXT -160 -184 Left 2 !.param vv=1.8 nnw=180n mp=2.5\n.lib BU_180nm.lib\n;op\n.tran 0 10000p 0 10p
TEXT 960 -104 Left 2 !.meas tran t1 find time when v(o1)=vv*0.1 rise 1\n.meas tran t2 find time when v(o1)=vv*0.9 rise 1\n.meas tran t3 find time when v(o1)=vv*0.1 fall 1\n.meas tran t4 find time when v(o1)=vv*0.9 fall 1\n.meas tran t5 find time when v(n001)=vv*0.1 rise 1\n.meas tran t6 find time when v(n001)=vv*0.1 fall 1\n.meas tran transition_up param abs(t2-t1)\n.meas tran transition_down param abs(t4-t3)\n.meas tran ratio param transition_up/transition_down\n.meas tran propagation param abs(t5-t2)\n.meas tran propagationFall param abs(t6-t3)
