Version 4
SHEET 1 2212 2036
WIRE 1408 400 1344 400
WIRE 1424 400 1408 400
WIRE 1536 416 1488 416
WIRE 1616 416 1536 416
WIRE 1376 432 1344 432
WIRE 1424 432 1376 432
WIRE 1760 432 1680 432
WIRE 1616 448 1568 448
WIRE 1504 496 1344 496
WIRE 1568 496 1568 448
WIRE 1568 496 1504 496
WIRE 1536 608 1536 416
WIRE 1552 608 1536 608
WIRE 1696 624 1616 624
WIRE 1808 624 1744 624
WIRE 1504 640 1504 496
WIRE 1552 640 1504 640
WIRE 1808 672 1808 624
WIRE 1872 672 1808 672
WIRE 2016 688 1936 688
WIRE 2096 688 2064 688
WIRE 1872 704 1808 704
WIRE 1408 752 1408 400
WIRE 1552 752 1408 752
WIRE 1696 768 1616 768
WIRE 1808 768 1808 704
WIRE 1808 768 1744 768
WIRE 1376 784 1376 432
WIRE 1552 784 1376 784
WIRE 2096 896 2096 688
WIRE 2096 896 1232 896
WIRE 1392 992 1328 992
WIRE 1408 992 1392 992
WIRE 1520 1008 1472 1008
WIRE 1600 1008 1520 1008
WIRE 1360 1024 1328 1024
WIRE 1408 1024 1360 1024
WIRE 1744 1024 1664 1024
WIRE 1600 1040 1552 1040
WIRE 1232 1088 1232 896
WIRE 1488 1088 1232 1088
WIRE 1552 1088 1552 1040
WIRE 1552 1088 1488 1088
WIRE 1520 1200 1520 1008
WIRE 1536 1200 1520 1200
WIRE 1680 1216 1600 1216
WIRE 1792 1216 1728 1216
WIRE 1488 1232 1488 1088
WIRE 1536 1232 1488 1232
WIRE 1792 1264 1792 1216
WIRE 1856 1264 1792 1264
WIRE 2000 1280 1920 1280
WIRE 2096 1280 2048 1280
WIRE 1856 1296 1792 1296
WIRE 1392 1344 1392 992
WIRE 1536 1344 1392 1344
WIRE 1680 1360 1600 1360
WIRE 1792 1360 1792 1296
WIRE 1792 1360 1728 1360
WIRE 1360 1376 1360 1024
WIRE 1536 1376 1360 1376
WIRE 2096 1472 2096 1280
WIRE 2096 1472 1232 1472
WIRE 1392 1552 1328 1552
WIRE 1408 1552 1392 1552
WIRE 1520 1568 1472 1568
WIRE 1600 1568 1520 1568
WIRE 1360 1584 1328 1584
WIRE 1408 1584 1360 1584
WIRE 1744 1584 1664 1584
WIRE 1600 1600 1552 1600
WIRE 1232 1648 1232 1472
WIRE 1488 1648 1232 1648
WIRE 1552 1648 1552 1600
WIRE 1552 1648 1488 1648
WIRE 1520 1760 1520 1568
WIRE 1536 1760 1520 1760
WIRE 1680 1776 1600 1776
WIRE 1792 1776 1728 1776
WIRE 1488 1792 1488 1648
WIRE 1536 1792 1488 1792
WIRE 1792 1824 1792 1776
WIRE 1856 1824 1792 1824
WIRE 2000 1840 1920 1840
WIRE 2096 1840 2048 1840
WIRE 1856 1856 1792 1856
WIRE 1392 1904 1392 1552
WIRE 1536 1904 1392 1904
WIRE 1680 1920 1600 1920
WIRE 1792 1920 1792 1856
WIRE 1792 1920 1728 1920
WIRE 1360 1936 1360 1584
WIRE 1536 1936 1360 1936
FLAG 1344 496 cin
FLAG 1344 400 a1
FLAG 1344 432 b1
FLAG 1456 384 vdd
FLAG 1648 400 vdd
FLAG 1456 448 vss
FLAG 1760 432 o1
FLAG 1584 592 vdd
FLAG 1584 736 vdd
FLAG 1584 656 vss
FLAG 1648 464 vss
FLAG 1584 800 vss
FLAG 1712 752 vdd
FLAG 1712 608 vdd
FLAG 1712 784 vss
FLAG 1712 640 vss
FLAG 1904 656 vdd
FLAG 2032 672 vdd
FLAG 1904 720 vss
FLAG 2032 704 vss
FLAG 1440 976 vdd
FLAG 1632 992 vdd
FLAG 1440 1040 vss
FLAG 1568 1184 vdd
FLAG 1568 1328 vdd
FLAG 1568 1248 vss
FLAG 1632 1056 vss
FLAG 1568 1392 vss
FLAG 1696 1344 vdd
FLAG 1696 1200 vdd
FLAG 1696 1376 vss
FLAG 1696 1232 vss
FLAG 1888 1248 vdd
FLAG 2016 1264 vdd
FLAG 1888 1312 vss
FLAG 2016 1296 vss
FLAG 1440 1536 vdd
FLAG 1632 1552 vdd
FLAG 1440 1600 vss
FLAG 1568 1744 vdd
FLAG 1568 1888 vdd
FLAG 1568 1808 vss
FLAG 1632 1616 vss
FLAG 1568 1952 vss
FLAG 1696 1904 vdd
FLAG 1696 1760 vdd
FLAG 1696 1936 vss
FLAG 1696 1792 vss
FLAG 1888 1808 vdd
FLAG 2016 1824 vdd
FLAG 1888 1872 vss
FLAG 2016 1856 vss
FLAG 2096 1840 cout
FLAG 1744 1024 o2
FLAG 1744 1584 o3
FLAG 1328 992 a2
FLAG 1328 1552 a3
FLAG 1328 1024 b2
FLAG 1328 1584 b3
SYMBOL xor 1456 416 R0
WINDOW 0 0 -52 Invisible 2
SYMATTR InstName X1
SYMATTR SpiceLine ll=180n wn={nnw} wp={nnw*mp}
SYMBOL xor 1648 432 R0
WINDOW 0 0 -52 Invisible 2
SYMATTR InstName X2
SYMATTR SpiceLine ll=180n wn={nnw} wp={nnw*mp}
SYMBOL nand 1584 624 R0
WINDOW 0 16 -32 Invisible 2
SYMATTR InstName X3
SYMATTR SpiceLine ll=180n wn={nnw} wp={nnw*mp}
SYMBOL nand 1584 768 R0
WINDOW 0 16 -32 Invisible 2
SYMATTR InstName X4
SYMATTR SpiceLine ll=180n wn={nnw} wp={nnw*mp}
SYMBOL inv 1712 624 R0
WINDOW 0 -8 -32 Invisible 2
SYMATTR InstName X5
SYMATTR SpiceLine ll=180n wn={nnw} wp={nnw*mp}
SYMBOL inv 1712 768 R0
WINDOW 0 -8 -32 Invisible 2
SYMATTR InstName X6
SYMATTR SpiceLine ll=180n wn={nnw} wp={nnw*mp}
SYMBOL nor 1904 688 R0
WINDOW 0 0 -52 Invisible 2
SYMATTR InstName X7
SYMATTR SpiceLine ll=180n wn={nnw} wp={nnw*mp}
SYMBOL inv 2032 688 R0
WINDOW 0 -8 -32 Invisible 2
SYMATTR InstName X8
SYMATTR SpiceLine ll=180n wn={nnw} wp={nnw*mp}
SYMBOL xor 1440 1008 R0
WINDOW 0 0 -52 Invisible 2
SYMATTR InstName X9
SYMATTR SpiceLine ll=180n wn={nnw} wp={nnw*mp}
SYMBOL xor 1632 1024 R0
WINDOW 0 0 -52 Invisible 2
SYMATTR InstName X10
SYMATTR SpiceLine ll=180n wn={nnw} wp={nnw*mp}
SYMBOL nand 1568 1216 R0
WINDOW 0 16 -32 Invisible 2
SYMATTR InstName X11
SYMATTR SpiceLine ll=180n wn={nnw} wp={nnw*mp}
SYMBOL nand 1568 1360 R0
WINDOW 0 16 -32 Invisible 2
SYMATTR InstName X12
SYMATTR SpiceLine ll=180n wn={nnw} wp={nnw*mp}
SYMBOL inv 1696 1216 R0
WINDOW 0 -8 -32 Invisible 2
SYMATTR InstName X13
SYMATTR SpiceLine ll=180n wn={nnw} wp={nnw*mp}
SYMBOL inv 1696 1360 R0
WINDOW 0 -8 -32 Invisible 2
SYMATTR InstName X14
SYMATTR SpiceLine ll=180n wn={nnw} wp={nnw*mp}
SYMBOL nor 1888 1280 R0
WINDOW 0 0 -52 Invisible 2
SYMATTR InstName X15
SYMATTR SpiceLine ll=180n wn={nnw} wp={nnw*mp}
SYMBOL inv 2016 1280 R0
WINDOW 0 -8 -32 Invisible 2
SYMATTR InstName X16
SYMATTR SpiceLine ll=180n wn={nnw} wp={nnw*mp}
SYMBOL xor 1440 1568 R0
WINDOW 0 0 -52 Invisible 2
SYMATTR InstName X17
SYMATTR SpiceLine ll=180n wn={nnw} wp={nnw*mp}
SYMBOL xor 1632 1584 R0
WINDOW 0 0 -52 Invisible 2
SYMATTR InstName X18
SYMATTR SpiceLine ll=180n wn={nnw} wp={nnw*mp}
SYMBOL nand 1568 1776 R0
WINDOW 0 16 -32 Invisible 2
SYMATTR InstName X19
SYMATTR SpiceLine ll=180n wn={nnw} wp={nnw*mp}
SYMBOL nand 1568 1920 R0
WINDOW 0 16 -32 Invisible 2
SYMATTR InstName X20
SYMATTR SpiceLine ll=180n wn={nnw} wp={nnw*mp}
SYMBOL inv 1696 1776 R0
WINDOW 0 -8 -32 Invisible 2
SYMATTR InstName X21
SYMATTR SpiceLine ll=180n wn={nnw} wp={nnw*mp}
SYMBOL inv 1696 1920 R0
WINDOW 0 -8 -32 Invisible 2
SYMATTR InstName X22
SYMATTR SpiceLine ll=180n wn={nnw} wp={nnw*mp}
SYMBOL nor 1888 1840 R0
WINDOW 0 0 -52 Invisible 2
SYMATTR InstName X23
SYMATTR SpiceLine ll=180n wn={nnw} wp={nnw*mp}
SYMBOL inv 2016 1840 R0
WINDOW 0 -8 -32 Invisible 2
SYMATTR InstName X24
SYMATTR SpiceLine ll=180n wn={nnw} wp={nnw*mp}
