Version 4
SHEET 1 2212 2004
WIRE 1456 368 1392 368
WIRE 1472 368 1456 368
WIRE 1584 384 1536 384
WIRE 1664 384 1584 384
WIRE 1424 400 1392 400
WIRE 1472 400 1424 400
WIRE 1808 400 1728 400
WIRE 1664 416 1616 416
WIRE 1552 464 1392 464
WIRE 1616 464 1616 416
WIRE 1616 464 1552 464
WIRE 1584 576 1584 384
WIRE 1600 576 1584 576
WIRE 1744 592 1664 592
WIRE 1856 592 1792 592
WIRE 1552 608 1552 464
WIRE 1600 608 1552 608
WIRE 1856 640 1856 592
WIRE 1920 640 1856 640
WIRE 2064 656 1984 656
WIRE 2144 656 2112 656
WIRE 1920 672 1856 672
WIRE 1456 720 1456 368
WIRE 1600 720 1456 720
WIRE 1744 736 1664 736
WIRE 1856 736 1856 672
WIRE 1856 736 1792 736
WIRE 1424 752 1424 400
WIRE 1600 752 1424 752
WIRE 2144 864 2144 656
WIRE 2144 864 1280 864
WIRE 1440 960 1376 960
WIRE 1456 960 1440 960
WIRE 1568 976 1520 976
WIRE 1648 976 1568 976
WIRE 1408 992 1376 992
WIRE 1456 992 1408 992
WIRE 1792 992 1712 992
WIRE 1648 1008 1600 1008
WIRE 1280 1056 1280 864
WIRE 1536 1056 1280 1056
WIRE 1600 1056 1600 1008
WIRE 1600 1056 1536 1056
WIRE 1568 1168 1568 976
WIRE 1584 1168 1568 1168
WIRE 1728 1184 1648 1184
WIRE 1840 1184 1776 1184
WIRE 1536 1200 1536 1056
WIRE 1584 1200 1536 1200
WIRE 1840 1232 1840 1184
WIRE 1904 1232 1840 1232
WIRE 2048 1248 1968 1248
WIRE 2144 1248 2096 1248
WIRE 1904 1264 1840 1264
WIRE 1440 1312 1440 960
WIRE 1584 1312 1440 1312
WIRE 1728 1328 1648 1328
WIRE 1840 1328 1840 1264
WIRE 1840 1328 1776 1328
WIRE 1408 1344 1408 992
WIRE 1584 1344 1408 1344
WIRE 2144 1440 2144 1248
WIRE 2144 1440 1280 1440
WIRE 1440 1520 1376 1520
WIRE 1456 1520 1440 1520
WIRE 1568 1536 1520 1536
WIRE 1648 1536 1568 1536
WIRE 1408 1552 1376 1552
WIRE 1456 1552 1408 1552
WIRE 1792 1552 1712 1552
WIRE 1648 1568 1600 1568
WIRE 1280 1616 1280 1440
WIRE 1536 1616 1280 1616
WIRE 1600 1616 1600 1568
WIRE 1600 1616 1536 1616
WIRE 1568 1728 1568 1536
WIRE 1584 1728 1568 1728
WIRE 1728 1744 1648 1744
WIRE 1840 1744 1776 1744
WIRE 1536 1760 1536 1616
WIRE 1584 1760 1536 1760
WIRE 1840 1792 1840 1744
WIRE 1904 1792 1840 1792
WIRE 2048 1808 1968 1808
WIRE 2144 1808 2096 1808
WIRE 1904 1824 1840 1824
WIRE 1440 1872 1440 1520
WIRE 1584 1872 1440 1872
WIRE 1728 1888 1648 1888
WIRE 1840 1888 1840 1824
WIRE 1840 1888 1776 1888
WIRE 1408 1904 1408 1552
WIRE 1584 1904 1408 1904
FLAG 1392 464 cin
FLAG 1392 368 a1
FLAG 1392 400 b1
FLAG 1504 352 vdd
FLAG 1696 368 vdd
FLAG 1504 416 vss
FLAG 1808 400 o1
FLAG 1632 560 vdd
FLAG 1632 704 vdd
FLAG 1632 624 vss
FLAG 1696 432 vss
FLAG 1632 768 vss
FLAG 1760 720 vdd
FLAG 1760 576 vdd
FLAG 1760 752 vss
FLAG 1760 608 vss
FLAG 1952 624 vdd
FLAG 2080 640 vdd
FLAG 1952 688 vss
FLAG 2080 672 vss
FLAG 1488 944 vdd
FLAG 1680 960 vdd
FLAG 1488 1008 vss
FLAG 1616 1152 vdd
FLAG 1616 1296 vdd
FLAG 1616 1216 vss
FLAG 1680 1024 vss
FLAG 1616 1360 vss
FLAG 1744 1312 vdd
FLAG 1744 1168 vdd
FLAG 1744 1344 vss
FLAG 1744 1200 vss
FLAG 1936 1216 vdd
FLAG 2064 1232 vdd
FLAG 1936 1280 vss
FLAG 2064 1264 vss
FLAG 1488 1504 vdd
FLAG 1680 1520 vdd
FLAG 1488 1568 vss
FLAG 1616 1712 vdd
FLAG 1616 1856 vdd
FLAG 1616 1776 vss
FLAG 1680 1584 vss
FLAG 1616 1920 vss
FLAG 1744 1872 vdd
FLAG 1744 1728 vdd
FLAG 1744 1904 vss
FLAG 1744 1760 vss
FLAG 1936 1776 vdd
FLAG 2064 1792 vdd
FLAG 1936 1840 vss
FLAG 2064 1824 vss
FLAG 2144 1808 cout
FLAG 1792 992 o2
FLAG 1792 1552 o3
FLAG 1376 960 a2
FLAG 1376 1520 a3
FLAG 1376 992 b2
FLAG 1376 1552 b3
SYMBOL xor 1504 384 R0
SYMATTR InstName X1
SYMATTR SpiceLine ll=180n wn={nnw} wp={nnw*mp}
SYMBOL xor 1696 400 R0
SYMATTR InstName X2
SYMATTR SpiceLine ll=180n wn={nnw} wp={nnw*mp}
SYMBOL nand 1632 592 R0
SYMATTR InstName X3
SYMATTR SpiceLine ll=180n wn={nnw} wp={nnw*mp}
SYMBOL nand 1632 736 R0
SYMATTR InstName X4
SYMATTR SpiceLine ll=180n wn={nnw} wp={nnw*mp}
SYMBOL inv 1760 592 R0
SYMATTR InstName X5
SYMATTR SpiceLine ll=180n wn={nnw} wp={nnw*mp}
SYMBOL inv 1760 736 R0
SYMATTR InstName X6
SYMATTR SpiceLine ll=180n wn={nnw} wp={nnw*mp}
SYMBOL nor 1952 656 R0
SYMATTR InstName X7
SYMATTR SpiceLine ll=180n wn={nnw} wp={nnw*mp}
SYMBOL inv 2080 656 R0
SYMATTR InstName X8
SYMATTR SpiceLine ll=180n wn={nnw} wp={nnw*mp}
SYMBOL xor 1488 976 R0
SYMATTR InstName X9
SYMATTR SpiceLine ll=180n wn={nnw} wp={nnw*mp}
SYMBOL xor 1680 992 R0
SYMATTR InstName X10
SYMATTR SpiceLine ll=180n wn={nnw} wp={nnw*mp}
SYMBOL nand 1616 1184 R0
SYMATTR InstName X11
SYMATTR SpiceLine ll=180n wn={nnw} wp={nnw*mp}
SYMBOL nand 1616 1328 R0
SYMATTR InstName X12
SYMATTR SpiceLine ll=180n wn={nnw} wp={nnw*mp}
SYMBOL inv 1744 1184 R0
SYMATTR InstName X13
SYMATTR SpiceLine ll=180n wn={nnw} wp={nnw*mp}
SYMBOL inv 1744 1328 R0
SYMATTR InstName X14
SYMATTR SpiceLine ll=180n wn={nnw} wp={nnw*mp}
SYMBOL nor 1936 1248 R0
SYMATTR InstName X15
SYMATTR SpiceLine ll=180n wn={nnw} wp={nnw*mp}
SYMBOL inv 2064 1248 R0
SYMATTR InstName X16
SYMATTR SpiceLine ll=180n wn={nnw} wp={nnw*mp}
SYMBOL xor 1488 1536 R0
SYMATTR InstName X17
SYMATTR SpiceLine ll=180n wn={nnw} wp={nnw*mp}
SYMBOL xor 1680 1552 R0
SYMATTR InstName X18
SYMATTR SpiceLine ll=180n wn={nnw} wp={nnw*mp}
SYMBOL nand 1616 1744 R0
SYMATTR InstName X19
SYMATTR SpiceLine ll=180n wn={nnw} wp={nnw*mp}
SYMBOL nand 1616 1888 R0
SYMATTR InstName X20
SYMATTR SpiceLine ll=180n wn={nnw} wp={nnw*mp}
SYMBOL inv 1744 1744 R0
SYMATTR InstName X21
SYMATTR SpiceLine ll=180n wn={nnw} wp={nnw*mp}
SYMBOL inv 1744 1888 R0
SYMATTR InstName X22
SYMATTR SpiceLine ll=180n wn={nnw} wp={nnw*mp}
SYMBOL nor 1936 1808 R0
SYMATTR InstName X23
SYMATTR SpiceLine ll=180n wn={nnw} wp={nnw*mp}
SYMBOL inv 2064 1808 R0
SYMATTR InstName X24
SYMATTR SpiceLine ll=180n wn={nnw} wp={nnw*mp}
