Version 4
SHEET 1 880 1032
WIRE -896 112 -896 64
WIRE -944 128 -1120 128
WIRE -944 160 -1072 160
WIRE -944 192 -1040 192
WIRE -688 192 -848 192
WIRE -720 224 -848 224
WIRE -944 256 -1120 256
WIRE -752 256 -848 256
WIRE -192 272 -192 256
WIRE -944 288 -1072 288
WIRE -208 288 -416 288
WIRE -32 288 -160 288
WIRE 32 288 -32 288
WIRE -944 320 -1040 320
WIRE -192 320 -192 304
WIRE -544 336 -544 288
WIRE -688 352 -688 192
WIRE -592 352 -688 352
WIRE -720 384 -720 224
WIRE -592 384 -720 384
WIRE -896 400 -896 336
WIRE -752 416 -752 256
WIRE -592 416 -752 416
WIRE -416 416 -416 288
WIRE -416 416 -496 416
WIRE -192 432 -192 416
WIRE -592 448 -1040 448
WIRE -208 448 -496 448
WIRE -32 448 -160 448
WIRE 32 448 -32 448
WIRE -592 480 -752 480
WIRE -416 480 -496 480
WIRE -192 480 -192 464
WIRE -592 512 -720 512
WIRE -928 528 -1040 528
WIRE -592 544 -688 544
WIRE -928 576 -928 528
WIRE -896 576 -896 528
WIRE -944 592 -1120 592
WIRE -192 592 -192 576
WIRE -416 608 -416 480
WIRE -208 608 -416 608
WIRE -32 608 -160 608
WIRE 32 608 -32 608
WIRE -944 624 -1072 624
WIRE -544 624 -544 560
WIRE -192 640 -192 624
WIRE -944 656 -1040 656
WIRE -752 656 -752 480
WIRE -752 656 -848 656
WIRE -720 688 -720 512
WIRE -720 688 -848 688
WIRE -944 720 -1120 720
WIRE -688 720 -688 544
WIRE -688 720 -848 720
WIRE -944 752 -1072 752
WIRE -944 784 -1040 784
WIRE -624 848 -624 816
WIRE -896 864 -896 800
WIRE -656 864 -688 864
WIRE -512 864 -512 816
WIRE -528 880 -592 880
WIRE -448 880 -480 880
WIRE -368 880 -368 864
WIRE -864 896 -864 800
WIRE -656 896 -864 896
WIRE -448 896 -448 880
WIRE -384 896 -448 896
WIRE -224 896 -336 896
WIRE -144 896 -224 896
WIRE -624 928 -624 912
WIRE -512 928 -512 896
WIRE -368 928 -368 912
FLAG -896 864 vss
FLAG -896 64 vdd
FLAG 32 288 o1
FLAG 32 448 o2
FLAG 32 608 o3
FLAG -1120 256 b1
FLAG -1072 288 b2
FLAG -1040 320 b3
FLAG -1120 128 a1
FLAG -1072 160 a2
FLAG -1040 192 a3
FLAG -1120 720 b1
FLAG -1072 752 b2
FLAG -1040 784 b3
FLAG -1120 592 a1
FLAG -1072 624 a2
FLAG -1040 656 a3
FLAG -1040 448 sel
FLAG -896 400 vss
FLAG -544 624 vss
FLAG -896 528 vdd
FLAG -544 288 vdd
FLAG -1040 528 cin
FLAG -144 896 cout
FLAG -192 640 vss
FLAG -192 480 vss
FLAG -192 320 vss
FLAG -192 416 vdd
FLAG -192 256 vdd
FLAG -192 576 vdd
FLAG -32 512 0
FLAG -32 672 0
FLAG -32 352 0
FLAG -224 960 0
FLAG -368 928 vss
FLAG -368 864 vdd
FLAG -688 864 sel
FLAG -624 816 vdd
FLAG -512 816 vdd
FLAG -624 928 vss
FLAG -512 928 vss
SYMBOL add3b -896 688 R0
SYMATTR InstName X1
SYMATTR SpiceLine ll=180n wn={nnw} wp={nnw*mp/2}
SYMBOL and3b -896 224 R0
SYMATTR InstName X2
SYMATTR SpiceLine ll=180n wn={nnw} wp={nnw*mp/2}
SYMBOL mux2x3b -544 448 R0
SYMATTR InstName X3
SYMATTR SpiceLine ll=180n wn={nnw} wp={nnw*mp/2}
SYMBOL pad_buffer -192 288 R0
SYMATTR InstName X6
SYMBOL pad_buffer -192 448 R0
SYMATTR InstName X7
SYMBOL pad_buffer -192 608 R0
SYMATTR InstName X8
SYMBOL /cap -48 288 R0
SYMATTR InstName C1
SYMATTR Value 1.5p
SYMBOL /cap -48 448 R0
SYMATTR InstName C2
SYMATTR Value 1.5p
SYMBOL /cap -48 608 R0
SYMATTR InstName C3
SYMATTR Value 1.5p
SYMBOL /cap -240 896 R0
SYMATTR InstName C4
SYMATTR Value 1.5p
SYMBOL pad_buffer -368 896 R0
SYMATTR InstName X9
SYMBOL nand -624 880 R0
SYMATTR InstName X4
SYMATTR SpiceLine ll=180n wn={nnw} wp={nnw*mp}
SYMBOL inv -512 880 R0
SYMATTR InstName X5
SYMATTR SpiceLine ll=180n wn={nnw} wp={nnw*mp}
