Version 4
SHEET 1 880 1032
WIRE -32 -160 -144 -160
WIRE 112 -144 32 -144
WIRE 224 -144 160 -144
WIRE -32 -128 -144 -128
WIRE -32 32 -144 32
WIRE 112 48 32 48
WIRE 224 48 160 48
WIRE -32 64 -144 64
WIRE -32 208 -144 208
WIRE 112 224 32 224
WIRE 224 224 160 224
WIRE -32 240 -144 240
FLAG 0 -176 vdd
FLAG 0 -112 vss
FLAG 0 16 vdd
FLAG 0 80 vss
FLAG 0 192 vdd
FLAG 0 256 vss
FLAG -144 -160 a1
FLAG -144 32 a2
FLAG -144 208 a3
FLAG -144 -128 b1
FLAG -144 64 b2
FLAG -144 240 b3
FLAG 128 208 vdd
FLAG 128 32 vdd
FLAG 128 -160 vdd
FLAG 128 240 vss
FLAG 128 64 vss
FLAG 128 -128 vss
FLAG 224 -144 o1
FLAG 224 48 o2
FLAG 224 224 o3
SYMBOL nand 0 -144 R0
WINDOW 0 16 -32 Invisible 2
SYMATTR InstName X1
SYMATTR SpiceLine ll=180n wn={nnw} wp={nnw*mp}
SYMBOL nand 0 48 R0
WINDOW 0 16 -32 Invisible 2
SYMATTR InstName X2
SYMATTR SpiceLine ll=180n wn={nnw} wp={nnw*mp}
SYMBOL nand 0 224 R0
WINDOW 0 16 -32 Invisible 2
SYMATTR InstName X3
SYMATTR SpiceLine ll=180n wn={nnw} wp={nnw*mp}
SYMBOL inv 128 -144 R0
WINDOW 0 -8 -32 Invisible 2
SYMATTR InstName X4
SYMATTR SpiceLine ll=180n wn={nnw} wp={nnw*mp}
SYMBOL inv 128 48 R0
WINDOW 0 -8 -32 Invisible 2
SYMATTR InstName X5
SYMATTR SpiceLine ll=180n wn={nnw} wp={nnw*mp}
SYMBOL inv 128 224 R0
WINDOW 0 -8 -32 Invisible 2
SYMATTR InstName X6
SYMATTR SpiceLine ll=180n wn={nnw} wp={nnw*mp}
