Version 4
SHEET 1 1604 680
WIRE 464 -16 464 -96
WIRE 208 144 -624 144
WIRE -624 208 -624 144
WIRE 432 208 432 176
WIRE 208 224 208 144
WIRE 288 224 208 224
WIRE 384 224 288 224
WIRE 208 256 208 224
WIRE 288 256 208 256
WIRE 384 256 288 256
WIRE 208 288 208 256
WIRE 288 288 208 288
WIRE 384 288 288 288
WIRE 544 288 480 288
WIRE 624 288 544 288
WIRE 544 320 480 320
WIRE 624 320 544 320
WIRE 784 320 752 320
WIRE 816 320 784 320
WIRE -624 336 -624 288
WIRE 208 352 208 288
WIRE 288 352 208 352
WIRE 384 352 288 352
WIRE 544 352 480 352
WIRE 624 352 544 352
WIRE 288 384 208 384
WIRE 384 384 288 384
WIRE 208 416 208 384
WIRE 288 416 208 416
WIRE 384 416 288 416
WIRE 208 448 208 416
WIRE 432 464 432 432
FLAG 784 320 out
FLAG 144 -16 0
FLAG 352 -16 0
FLAG 560 -16 0
FLAG 352 -96 a
FLAG 560 -96 b
FLAG 720 -16 0
FLAG 720 -96 sel
FLAG 544 288 o1
FLAG 544 320 o2
FLAG 544 352 o3
FLAG 288 224 a1
FLAG 288 256 a2
FLAG 288 288 a3
FLAG 288 352 b1
FLAG 288 384 b2
FLAG 288 416 b3
FLAG 144 -96 vdd
FLAG 432 176 vdd
FLAG 464 -16 0
FLAG 464 -96 vss
FLAG 432 464 vss
FLAG 208 448 0
FLAG -624 336 0
SYMBOL Bin2Dec 688 320 R0
SYMATTR InstName U1
SYMATTR SpiceLine Vhigh={vv}
SYMBOL /voltage 144 -112 R0
SYMATTR InstName V1
SYMATTR Value 1.8
SYMBOL /voltage 352 -112 R0
SYMATTR InstName Va
SYMATTR Value 3
SYMBOL /voltage 560 -112 R0
SYMATTR InstName Vb
SYMATTR Value 3
SYMBOL /voltage 720 -112 R0
SYMATTR InstName Vsel
SYMATTR Value 1.8
SYMBOL and3b 432 320 R0
SYMATTR InstName X1
SYMATTR SpiceLine ll=180n wn={nnw} wp={nnw*mp}
SYMBOL /voltage -624 192 R0
SYMATTR InstName V2
SYMATTR Value PULSE(0 {vv} 2000p 1p 1p 2000p 4000p 5)
TEXT -160 -184 Left 2 !.param vv=1.8 nnw=180n mp=2.5\n.lib BU_180nm.lib\n.op\n.tran 0 10000p 0 10p
TEXT 968 -232 Left 2 !.meas tran t1 find time when v(o1)=vv*0.1 rise 1\n.meas tran t2 find time when v(o1)=vv*0.9 rise 1\n.meas tran t3 find time when v(o1)=vv*0.1 fall 1\n.meas tran t4 find time when v(o1)=vv*0.9 fall 1\n.meas tran t5 find time when v(b1)=vv*0.1 rise 1\n.meas tran t6 find time when v(b1)=vv*0.1 fall 1\n.meas tran transition_up param abs(t2-t1)\n.meas tran transition_down param abs(t4-t3)\n.meas tran ratio param transition_up/transition_down\n.meas tran propagation param abs(t5-t2)\n.meas tran propagationFall param abs(t6-t3)
