Version 4
SHEET 1 1960 1836
WIRE 1184 128 896 128
WIRE 1152 144 1152 96
WIRE 1296 144 1248 144
WIRE 1456 144 1344 144
WIRE 1136 160 1088 160
WIRE 1568 160 1520 160
WIRE 1728 160 1616 160
WIRE 1456 176 1392 176
WIRE 1184 288 896 288
WIRE 1296 304 1248 304
WIRE 1392 304 1392 176
WIRE 1392 304 1344 304
WIRE 1088 320 1088 160
WIRE 1184 320 1088 320
WIRE 1088 384 1088 320
WIRE 1088 384 896 384
WIRE 1184 512 896 512
WIRE 1152 528 1152 480
WIRE 1296 528 1248 528
WIRE 1456 528 1344 528
WIRE 1136 544 1088 544
WIRE 1568 544 1520 544
WIRE 1728 544 1616 544
WIRE 1456 560 1392 560
WIRE 1184 672 896 672
WIRE 1296 688 1248 688
WIRE 1392 688 1392 560
WIRE 1392 688 1344 688
WIRE 1088 704 1088 544
WIRE 1184 704 1088 704
WIRE 1088 768 1088 704
WIRE 1088 768 896 768
WIRE 1184 896 896 896
WIRE 1152 912 1152 864
WIRE 1296 912 1248 912
WIRE 1456 912 1344 912
WIRE 1136 928 1088 928
WIRE 1584 928 1520 928
WIRE 1728 928 1632 928
WIRE 1456 944 1392 944
WIRE 1184 1056 896 1056
WIRE 1296 1072 1248 1072
WIRE 1392 1072 1392 944
WIRE 1392 1072 1344 1072
WIRE 1088 1088 1088 928
WIRE 1184 1088 1088 1088
WIRE 1088 1152 1088 1088
WIRE 1088 1152 896 1152
WIRE 1232 1376 1232 1296
WIRE 1264 1376 1232 1376
WIRE 1264 1424 1264 1376
WIRE 1264 1424 1232 1424
WIRE 1072 1520 1008 1520
WIRE 1184 1520 1184 1456
WIRE 1184 1520 1072 1520
WIRE 1232 1520 1232 1472
WIRE 1488 1520 1232 1520
WIRE 1232 1568 1232 1520
WIRE 1264 1616 1232 1616
WIRE 1072 1648 1072 1520
WIRE 1184 1648 1072 1648
WIRE 1264 1664 1264 1616
WIRE 1264 1664 1232 1664
WIRE 1232 1760 1232 1664
FLAG 1216 272 vdd
FLAG 1216 176 vss
FLAG 1216 336 vss
FLAG 1488 128 vdd
FLAG 1152 96 vdd
FLAG 1152 176 vss
FLAG 1488 192 vss
FLAG 1216 112 vdd
FLAG 1216 656 vdd
FLAG 1216 560 vss
FLAG 1216 720 vss
FLAG 1488 512 vdd
FLAG 1152 480 vdd
FLAG 1152 560 vss
FLAG 1488 576 vss
FLAG 1216 496 vdd
FLAG 896 768 sel
FLAG 896 512 a2
FLAG 896 672 b2
FLAG 1728 544 o2
FLAG 1216 1040 vdd
FLAG 1216 944 vss
FLAG 1216 1104 vss
FLAG 1488 896 vdd
FLAG 1152 864 vdd
FLAG 1152 944 vss
FLAG 1488 960 vss
FLAG 1216 880 vdd
FLAG 896 1152 sel
FLAG 896 896 a3
FLAG 896 1056 b3
FLAG 1728 928 o3
FLAG 1312 128 vdd
FLAG 1312 288 vdd
FLAG 1584 144 vdd
FLAG 1312 512 vdd
FLAG 1584 528 vdd
FLAG 1312 672 vdd
FLAG 1312 896 vdd
FLAG 1600 912 vdd
FLAG 1312 1056 vdd
FLAG 1312 160 vss
FLAG 1584 176 vss
FLAG 1312 320 vss
FLAG 1312 544 vss
FLAG 1584 560 vss
FLAG 1312 704 vss
FLAG 1312 928 vss
FLAG 1312 1088 vss
FLAG 1600 944 vss
FLAG 896 128 a1
FLAG 1728 160 o1
FLAG 896 288 b1
FLAG 896 384 sel
SYMBOL nor 1488 160 R0
WINDOW 0 17 -26 Left 2
SYMATTR InstName X1
SYMATTR SpiceLine ll=180n wn={nnw} wp={nnw*mp}
SYMBOL nand 1216 144 R0
SYMATTR InstName X2
SYMATTR SpiceLine ll=180n wn={nnw} wp={nnw*mp}
SYMBOL nand 1216 304 R0
WINDOW 0 21 -23 Left 2
SYMATTR InstName X3
SYMATTR SpiceLine ll=180n wn={nnw} wp={nnw*mp}
SYMBOL inv 1152 160 R0
SYMATTR InstName X4
SYMATTR SpiceLine ll=180n wn={nnw} wp={nnw*mp}
SYMBOL nor 1488 544 R0
WINDOW 0 17 -26 Left 2
SYMATTR InstName X5
SYMATTR SpiceLine ll=180n wn={nnw} wp={nnw*mp}
SYMBOL nand 1216 528 R0
SYMATTR InstName X6
SYMATTR SpiceLine ll=180n wn={nnw} wp={nnw*mp}
SYMBOL nand 1216 688 R0
WINDOW 0 21 -23 Left 2
SYMATTR InstName X7
SYMATTR SpiceLine ll=180n wn={nnw} wp={nnw*mp}
SYMBOL inv 1152 544 R0
SYMATTR InstName X8
SYMATTR SpiceLine ll=180n wn={nnw} wp={nnw*mp}
SYMBOL nor 1488 928 R0
WINDOW 0 17 -26 Left 2
SYMATTR InstName X9
SYMATTR SpiceLine ll=180n wn={nnw} wp={nnw*mp}
SYMBOL nand 1216 912 R0
SYMATTR InstName X10
SYMATTR SpiceLine ll=180n wn={nnw} wp={nnw*mp}
SYMBOL nand 1216 1072 R0
WINDOW 0 21 -23 Left 2
SYMATTR InstName X11
SYMATTR SpiceLine ll=180n wn={nnw} wp={nnw*mp}
SYMBOL inv 1152 928 R0
SYMATTR InstName X12
SYMATTR SpiceLine ll=180n wn={nnw} wp={nnw*mp}
SYMBOL inv 1312 144 R0
SYMATTR InstName X13
SYMATTR SpiceLine ll=180n wn={nnw} wp={nnw*mp}
SYMBOL inv 1584 160 R0
SYMATTR InstName X14
SYMATTR SpiceLine ll=180n wn={nnw} wp={nnw*mp}
SYMBOL inv 1312 304 R0
SYMATTR InstName X15
SYMATTR SpiceLine ll=180n wn={nnw} wp={nnw*mp}
SYMBOL inv 1584 544 R0
SYMATTR InstName X16
SYMATTR SpiceLine ll=180n wn={nnw} wp={nnw*mp}
SYMBOL inv 1312 528 R0
SYMATTR InstName X17
SYMATTR SpiceLine ll=180n wn={nnw} wp={nnw*mp}
SYMBOL inv 1312 688 R0
SYMATTR InstName X18
SYMATTR SpiceLine ll=180n wn={nnw} wp={nnw*mp}
SYMBOL inv 1312 912 R0
SYMATTR InstName X19
SYMATTR SpiceLine ll=180n wn={nnw} wp={nnw*mp}
SYMBOL inv 1600 928 R0
SYMATTR InstName X20
SYMATTR SpiceLine ll=180n wn={nnw} wp={nnw*mp}
SYMBOL inv 1312 1072 R0
SYMATTR InstName X21
SYMATTR SpiceLine ll=180n wn={nnw} wp={nnw*mp}
SYMBOL pmos018 1184 1376 R0
SYMATTR InstName M1
SYMATTR Value2 l={ll} w={wp} ad={450n*{wp}} as={450n*{wp}} pd={900n+{wp}} ps={1080n+{wp}}
SYMBOL nmos018 1184 1568 R0
SYMATTR InstName M2
SYMATTR Value2 l={ll} w={wn} ad={450n*{wn}} as={450n*{wn}} pd={900n+{wn}} ps={1080n+{wn}}
