Version 4
SHEET 1 1316 1076
WIRE 432 144 432 128
WIRE 432 272 432 144
WIRE 432 272 208 272
WIRE 576 272 432 272
WIRE 208 336 208 272
WIRE 576 336 576 272
WIRE 240 384 240 336
WIRE 240 384 208 384
WIRE 608 384 608 336
WIRE 608 384 576 384
WIRE 160 416 96 416
WIRE 528 416 464 416
WIRE 208 464 208 432
WIRE 448 464 208 464
WIRE 576 464 576 432
WIRE 576 464 448 464
WIRE 784 464 576 464
WIRE 816 464 784 464
WIRE 448 496 448 464
WIRE 480 544 448 544
WIRE 400 576 352 576
WIRE 480 592 480 544
WIRE 448 640 448 592
WIRE 480 688 448 688
WIRE 400 720 352 720
WIRE 480 736 480 688
WIRE 448 784 448 736
FLAG 432 144 vdd
FLAG 448 784 vss
FLAG 784 464 Q
FLAG 96 416 in1
FLAG 464 416 in2
FLAG 352 576 in1
FLAG 352 720 in2
FLAG 480 736 vss
FLAG 480 592 vss
FLAG 608 336 vdd
FLAG 240 336 vdd
SYMBOL nmos018 400 496 R0
SYMATTR InstName M1
SYMATTR Value2 l={ll} w={newWn*2} ad={450n*{newWn}} as={450n*{newWn}} pd={900n+{newWn}} ps={1080n+{newWn}}
SYMBOL pmos018 160 336 R0
SYMATTR InstName M2
SYMATTR Value2 l={ll} w={wp} ad={450n*{wp}} as={450n*{wp}} pd={900n+{wp}} ps={1080n+{wp}}
SYMBOL pmos018 528 336 R0
SYMATTR InstName M3
SYMATTR Value2 l={ll} w={wp} ad={450n*{wp}} as={450n*{wp}} pd={900n+{wp}} ps={1080n+{wp}}
SYMBOL nmos018 400 640 R0
SYMATTR InstName M4
SYMATTR Value2 l={ll} w={newWn*2} ad={450n*{newWn}} as={450n*{newWn}} pd={900n+{newWn}} ps={1080n+{newWn}}
TEXT 104 56 Left 2 !.lib BU_180nm.lib
TEXT 528 56 Left 2 ;Parametres requis: \nll=longueur \nwn=largeur_nmos \nwp=largeur_pmos
TEXT 552 624 Left 2 ;On a fait *2 a Wn pcq ils sont en serie. Pour garder le meme delai
TEXT 0 96 Left 2 !.param newWn={wn}
