Version 4
SHEET 1 1192 836
WIRE 416 32 416 -80
WIRE 448 80 448 32
WIRE 448 80 416 80
WIRE 368 112 304 112
WIRE 416 176 416 128
WIRE 448 224 448 176
WIRE 448 224 416 224
WIRE 368 256 304 256
WIRE 416 400 416 272
WIRE 416 400 160 400
WIRE 496 400 416 400
WIRE 800 400 496 400
WIRE 160 416 160 400
WIRE 496 416 496 400
WIRE 192 464 160 464
WIRE 528 464 496 464
WIRE 112 496 96 496
WIRE 448 496 432 496
WIRE 192 512 192 464
WIRE 528 512 528 464
WIRE 160 608 160 512
WIRE 416 608 160 608
WIRE 496 608 496 512
WIRE 496 608 416 608
WIRE 416 656 416 608
FLAG 416 -80 vdd
FLAG 416 656 vss
FLAG 800 400 Q
FLAG 96 496 in1
FLAG 432 496 in2
FLAG 304 112 in1
FLAG 304 256 in2
FLAG 448 32 vdd
FLAG 448 176 vdd
FLAG 528 512 vss
FLAG 192 512 vss
SYMBOL nmos018 112 416 R0
SYMATTR InstName M1
SYMATTR Value2 l={ll} w={wn} ad={450n*{wn}} as={450n*{wn}} pd={900n+{wn}} ps={1080n+{wn}}
SYMBOL nmos018 448 416 R0
SYMATTR InstName M2
SYMATTR Value2 l={ll} w={wn} ad={450n*{wn}} as={450n*{wn}} pd={900n+{wn}} ps={1080n+{wn}}
SYMBOL pmos018 368 32 R0
SYMATTR InstName M3
SYMATTR Value2 l={ll} w={newWp*2} ad={450n*{newWp}} as={450n*{newWp}} pd={900n+{newWp}} ps={1080n+{newWp}}
SYMBOL pmos018 368 176 R0
SYMATTR InstName M4
SYMATTR Value2 l={ll} w={newWp*2} ad={450n*{newWp}} as={450n*{newWp}} pd={900n+{newWp}} ps={1080n+{newWp}}
TEXT 152 -200 Left 2 !.lib BU_180nm.lib
TEXT 576 -208 Left 2 ;Parametres requis: \nll=longueur \nwn=largeur_nmos \nwp=largeur_pmos
TEXT 0 -160 Left 2 !.param newWp={wp}
