Version 4
SHEET 1 1400 680
WIRE 288 304 288 240
WIRE 368 304 288 304
WIRE 432 304 368 304
WIRE 496 304 432 304
WIRE 560 304 496 304
WIRE 624 304 560 304
WIRE 272 320 176 320
WIRE 352 320 320 320
WIRE 416 320 400 320
WIRE 480 320 464 320
WIRE 544 320 528 320
WIRE 608 320 592 320
WIRE 736 320 656 320
WIRE 368 336 288 336
WIRE 432 336 368 336
WIRE 496 336 432 336
WIRE 560 336 496 336
WIRE 624 336 560 336
WIRE 288 384 288 336
FLAG 288 240 vdd
FLAG 176 320 in
FLAG 736 320 out
FLAG 288 384 vss
SYMBOL inv 288 320 R0
SYMATTR InstName X1
SYMATTR SpiceLine ll=180n wn={nnw} wp={nnw*mp}
SYMBOL inv 368 320 R0
SYMATTR InstName X2
SYMATTR SpiceLine ll=180n wn={nnw*fac} wp={nnw*mp*fac}
SYMBOL inv 432 320 R0
SYMATTR InstName X3
SYMATTR SpiceLine ll=180n wn={nnw*fac*fac} wp={nnw*mp*fac*fac}
SYMBOL inv 496 320 R0
SYMATTR InstName X4
SYMATTR SpiceLine ll=180n wn={nnw*fac*fac*fac} wp={nnw*mp*fac*fac*fac}
SYMBOL inv 560 320 R0
SYMATTR InstName X5
SYMATTR SpiceLine ll=180n wn={nnw*fac*fac*fac*fac} wp={nnw*mp*fac*fac*fac*fac}
SYMBOL inv 624 320 R0
SYMATTR InstName X6
SYMATTR SpiceLine ll=180n wn={nnw*fac*fac*fac*fac*fac} wp={nnw*mp*fac*fac*fac*fac*fac}
TEXT -40 128 Left 2 !.param wpad=800u fac=3.38 vv=1.8 nnw=180n mp=2.26\n.lib BU_180nm.lib
