Version 4
SHEET 1 1168 680
WIRE 64 224 -336 224
WIRE -336 272 -336 224
WIRE 64 304 64 224
WIRE 48 320 -176 320
WIRE 224 320 96 320
WIRE 256 320 224 320
WIRE 224 336 224 320
WIRE -176 400 -176 320
WIRE 64 416 64 336
WIRE 224 416 224 400
WIRE 224 416 64 416
WIRE 64 432 64 416
FLAG -336 352 0
FLAG -176 480 0
FLAG -336 224 vdd
FLAG -176 320 vin
FLAG 256 320 out
FLAG 64 432 0
FLAG 64 416 vss
SYMBOL /voltage -336 256 R0
SYMATTR InstName V1
SYMATTR Value {vv}
SYMBOL /voltage -176 384 R0
SYMATTR InstName V2
SYMATTR Value PULSE(0 {vv} 1000p 1p 1p 2000p 4000p 5)
SYMBOL /cap 208 336 R0
SYMATTR InstName C1
SYMATTR Value 1.5p
SYMBOL pad_buffer 64 320 R0
SYMATTR InstName X11
TEXT -352 104 Left 2 !.param vv=1.8 nnw=180n mp=2.5\n.lib BU_180nm.lib\n.tran 0 10000p 0 10p
TEXT 64 0 Left 2 !.meas tran t1 find time when v(out)=vv*0.1 rise 1\n.meas tran t2 find time when v(out)=vv*0.9 rise 1\n.meas tran t3 find time when v(out)=vv*0.1 fall 1\n.meas tran t4 find time when v(out)=vv*0.9 fall 1\n.meas tran transition_up param abs(t2-t1)\n.meas tran transition_down param abs(t4-t3)\n.meas tran ratio param transition_up/transition_down\n.meas tran moy param (transition_up+transition_down)/2
