Version 4
SHEET 1 1540 1060
WIRE 416 -112 416 -160
WIRE 416 -16 416 -32
WIRE 416 -16 272 -16
WIRE 544 -16 416 -16
WIRE 272 32 272 -16
WIRE 304 32 272 32
WIRE 544 32 544 -16
WIRE 576 32 544 32
WIRE 304 80 304 32
WIRE 304 80 272 80
WIRE 576 80 576 32
WIRE 576 80 544 80
WIRE 224 112 160 112
WIRE 496 112 464 112
WIRE -288 176 -288 128
WIRE 272 176 272 128
WIRE 304 176 272 176
WIRE -304 192 -352 192
WIRE -208 192 -256 192
WIRE 272 192 272 176
WIRE 544 192 544 128
WIRE 576 192 544 192
WIRE -288 224 -288 208
WIRE 304 240 304 176
WIRE 304 240 272 240
WIRE 576 240 576 192
WIRE 576 240 544 240
WIRE 224 272 160 272
WIRE 496 272 464 272
WIRE 544 368 544 288
WIRE 544 368 496 368
WIRE -288 384 -288 336
WIRE -304 400 -352 400
WIRE -208 400 -256 400
WIRE 272 448 272 288
WIRE 496 448 496 368
WIRE 496 448 272 448
WIRE 512 448 496 448
WIRE 640 448 512 448
WIRE 864 448 720 448
WIRE -288 464 -288 416
WIRE 272 528 272 448
WIRE 512 528 512 448
WIRE 304 576 272 576
WIRE 544 576 512 576
WIRE 224 608 160 608
WIRE 464 608 416 608
WIRE 272 640 272 624
WIRE 304 640 304 576
WIRE 304 640 272 640
WIRE 512 640 512 624
WIRE 544 640 544 576
WIRE 544 640 512 640
WIRE 272 672 272 640
WIRE 512 672 512 640
WIRE -288 688 -288 640
WIRE -304 704 -352 704
WIRE -208 704 -256 704
WIRE 304 720 272 720
WIRE 544 720 512 720
WIRE -288 736 -288 720
WIRE 224 752 160 752
WIRE 464 752 416 752
WIRE 304 768 304 720
WIRE 304 768 272 768
WIRE 544 768 544 720
WIRE 544 768 512 768
WIRE 272 800 272 768
WIRE 448 800 272 800
WIRE 512 800 512 768
WIRE 512 800 448 800
WIRE 448 864 448 800
WIRE -288 896 -288 848
WIRE -304 912 -352 912
WIRE -208 912 -256 912
WIRE -288 976 -288 928
WIRE 448 976 448 944
FLAG 448 976 vss
FLAG 416 -160 vdd
FLAG 864 448 Q
FLAG 160 272 in2
FLAG 160 752 in2
FLAG 464 112 in1
FLAG 160 608 in1
FLAG -352 192 in1
FLAG -352 400 in2
FLAG -208 192 /in1_UP
FLAG -208 400 /in2_UP
FLAG 464 272 /in2_UP
FLAG -288 224 vss
FLAG -288 464 vss
FLAG -288 128 vdd
FLAG -288 336 vdd
FLAG 160 112 /in1_UP
FLAG 416 752 /in2
FLAG 416 608 /in1
FLAG -352 704 in1
FLAG -352 912 in2
FLAG -208 704 /in1
FLAG -208 912 /in2
FLAG -288 736 vss
FLAG -288 976 vss
FLAG -288 640 vdd
FLAG -288 848 vdd
SYMBOL /res 400 -128 R0
SYMATTR InstName R1
SYMATTR Value 1
SYMBOL /res 432 848 R0
SYMATTR InstName R2
SYMATTR Value 1
SYMBOL /res 736 432 R90
WINDOW 0 0 56 VBottom 2
WINDOW 3 32 56 VTop 2
SYMATTR InstName R3
SYMATTR Value 1
SYMBOL nmos018 224 528 R0
SYMATTR InstName M1
SYMATTR Value2 l={ll} w={wn2} ad={450n*{wn2}} as={450n*{wn2}} pd={900n+{wn2}} ps={1080n+{wn2}}
SYMBOL pmos018 224 32 R0
SYMATTR InstName M2
SYMATTR Value2 l={ll} w={wp2} ad={450n*{wp2}} as={450n*{wp2}} pd={900n+{wp2}} ps={1080n+{wp2}}
SYMBOL pmos018 496 32 R0
SYMATTR InstName M3
SYMATTR Value2 l={ll} w={wp2} ad={450n*{wp2}} as={450n*{wp2}} pd={900n+{wp2}} ps={1080n+{wp2}}
SYMBOL pmos018 224 192 R0
SYMATTR InstName M4
SYMATTR Value2 l={ll} w={wp2} ad={450n*{wp2}} as={450n*{wp2}} pd={900n+{wp2}} ps={1080n+{wp2}}
SYMBOL pmos018 496 192 R0
SYMATTR InstName M5
SYMATTR Value2 l={ll} w={wp3} ad={450n*{wp3}} as={450n*{wp3}} pd={900n+{wp3}} ps={1080n+{wp3}}
SYMBOL nmos018 224 672 R0
SYMATTR InstName M6
SYMATTR Value2 l={ll} w={wn2} ad={450n*{wn2}} as={450n*{wn2}} pd={900n+{wn2}} ps={1080n+{wn2}}
SYMBOL nmos018 464 528 R0
SYMATTR InstName M7
SYMATTR Value2 l={ll} w={wn2} ad={450n*{wn2}} as={450n*{wn2}} pd={900n+{wn2}} ps={1080n+{wn2}}
SYMBOL nmos018 464 672 R0
SYMATTR InstName M8
SYMATTR Value2 l={ll} w={wn3} ad={450n*{wn3}} as={450n*{wn3}} pd={900n+{wn3}} ps={1080n+{wn3}}
SYMBOL inv -288 192 R0
SYMATTR InstName X1
SYMATTR SpiceLine ll=180n wn={wn} wp={wp}
SYMBOL inv -288 400 R0
SYMATTR InstName X2
SYMATTR SpiceLine ll=180n wn={wn} wp={wp}
SYMBOL inv -288 704 R0
SYMATTR InstName X3
SYMATTR SpiceLine ll=180n wn={wn} wp={wp}
SYMBOL inv -288 912 R0
SYMATTR InstName X4
SYMATTR SpiceLine ll=180n wn={wn} wp={wp}
TEXT 64 -104 Left 2 !.lib BU_180nm.lib
TEXT 736 -144 Left 2 ;Parametres requis: \nll=longueur \nwn=largeur_nmos \nwp=largeur_pmos
TEXT -448 -72 Left 2 !.param wp3={wp*2} wn3={wn*2} wn2={wn*2} wp2={wp*2}
